in2_h
                    3D
 Structure written by MMmdl.
 68 70  0  0  1  0            999 V2000
   25.6080   31.0080   37.6680 P   0  0  0  0  0  0
   24.6180   31.1870   38.7480 O   0  0  0  0  0  0
   26.5380   32.1470   37.4990 O   0  5  0  0  0  0
   24.8500   30.8410   36.3150 O   0  0  0  0  0  0
   23.5880   30.1510   36.2680 C   0  0  0  0  0  0
   23.0970   30.1000   34.8230 C   0  0  1  0  0  0
   22.4900   31.3680   34.4470 O   0  0  0  0  0  0
   22.7990   31.6320   33.0810 C   0  0  1  0  0  0
   23.5250   32.9180   32.9100 N   0  0  0  0  0  0
   24.2290   33.4730   33.9590 C   0  0  0  0  0  0
   24.8700   34.6440   33.8210 C   0  0  0  0  0  0
   23.5820   33.5050   31.6480 C   0  0  0  0  0  0
   23.0370   32.9340   30.6920 O   0  0  0  0  0  0
   24.2210   34.6860   31.4980 N   0  0  0  0  0  0
   24.8190   35.2750   32.5400 C   0  0  0  0  0  0
   25.3130   36.5000   32.3640 N   0  0  0  0  0  0
   23.5880   30.4500   32.5230 C   0  0  2  0  0  0
   22.7450   29.5130   31.8830 O   0  0  0  0  0  0
   24.2050   29.8780   33.7870 C   0  0  2  0  0  0
   24.5230   28.4840   33.7120 O   0  0  0  0  0  0
   27.1080   28.6930   37.2370 C   0  0  2  0  0  0
   26.4070   29.7200   37.9330 O   0  0  0  0  0  0
   28.9740   29.7700   38.4510 C   0  0  2  0  0  0
   28.0730   28.6320   38.3250 O   0  0  1  0  0  0
   27.6970   29.2220   35.9090 C   0  0  0  0  0  0
   28.7370   30.2870   36.0140 C   0  0  2  0  0  0
   29.4270   30.3670   34.7790 O   0  0  0  0  0  0
   29.7120   30.1210   37.1590 C   0  0  1  0  0  0
   30.4660   31.3570   37.2880 N   0  0  2  0  0  0
   31.7440   31.4740   37.6410 C   0  0  0  0  0  0
   32.4410   30.5210   37.9590 O   0  0  1  0  0  0
   32.2980   32.8730   37.6480 C   0  0  0  0  0  0
   29.8520   29.5550   39.6940 C   0  0  2  0  0  0
   31.0080   28.7480   39.4200 O   0  0  0  0  0  0
   29.0470   28.8860   40.8020 C   0  0  2  0  0  0
   27.7710   29.5220   40.9930 O   0  0  2  0  0  0
   29.7490   28.7380   42.1400 C   0  0  0  0  0  0
   29.1820   27.6430   42.8840 O   0  0  2  0  0  0
   22.8601   30.6834   36.8802 H   0  0  0  0  0  0
   23.7150   29.1359   36.6444 H   0  0  0  0  0  0
   22.3551   29.3073   34.7266 H   0  0  0  0  0  0
   21.8605   31.6998   32.5308 H   0  0  0  0  0  0
   24.2706   32.9641   34.9107 H   0  0  0  0  0  0
   25.3972   35.0732   34.6602 H   0  0  0  0  0  0
   25.2710   36.9355   31.4537 H   0  0  0  0  0  0
   25.7294   36.9930   33.1409 H   0  0  0  0  0  0
   24.3643   30.7957   31.8404 H   0  0  0  0  0  0
   23.2726   28.7856   31.5453 H   0  0  0  0  0  0
   25.0921   30.4491   34.0609 H   0  0  0  0  0  0
   25.2169   28.3481   33.0627 H   0  0  0  0  0  0
   26.5293   27.7768   37.1195 H   0  0  0  0  0  0
   28.3415   30.6285   38.6767 H   0  0  0  0  0  0
   26.8858   29.5743   35.2718 H   0  0  0  0  0  0
   28.0965   28.3857   35.3354 H   0  0  0  0  0  0
   28.2196   31.2351   36.1608 H   0  0  0  0  0  0
   30.1004   31.0492   34.8317 H   0  0  0  0  0  0
   30.4020   29.3124   36.9181 H   0  0  0  0  0  0
   29.9224   32.1820   37.0784 H   0  0  0  0  0  0
   33.3450   32.8482   37.9502 H   0  0  0  0  0  0
   32.2189   33.3007   36.6485 H   0  0  0  0  0  0
   31.7320   33.4850   38.3503 H   0  0  0  0  0  0
   30.1879   30.5284   40.0514 H   0  0  0  0  0  0
   31.5228   28.6424   40.2234 H   0  0  0  0  0  0
   28.8345   27.8745   40.4559 H   0  0  0  0  0  0
   27.2927   29.0762   41.6959 H   0  0  0  0  0  0
   29.6399   29.6600   42.7111 H   0  0  0  0  0  0
   30.8104   28.5534   41.9746 H   0  0  0  0  0  0
   29.6340   27.5602   43.7269 H   0  0  0  0  0  0
  1  2  2  0  0  0
  1  3  1  0  0  0
  1  4  1  0  0  0
  1 22  1  0  0  0
  4  5  1  0  0  0
  5  6  1  0  0  0
  5 39  1  0  0  0
  5 40  1  0  0  0
  6  7  1  0  0  0
  6 19  1  0  0  0
  6 41  1  0  0  0
  7  8  1  0  0  0
  8  9  1  0  0  0
  8 17  1  0  0  0
  8 42  1  0  0  0
  9 10  1  0  0  0
  9 12  1  0  0  0
 10 11  2  0  0  0
 10 43  1  0  0  0
 11 15  1  0  0  0
 11 44  1  0  0  0
 12 13  2  0  0  0
 12 14  1  0  0  0
 14 15  2  0  0  0
 15 16  1  0  0  0
 16 45  1  0  0  0
 16 46  1  0  0  0
 17 18  1  0  0  0
 17 19  1  0  0  0
 17 47  1  0  0  0
 18 48  1  0  0  0
 19 20  1  0  0  0
 19 49  1  0  0  0
 20 50  1  0  0  0
 21 22  1  0  0  0
 21 24  1  0  0  0
 21 25  1  0  0  0
 21 51  1  0  0  0
 23 24  1  0  0  0
 23 28  1  0  0  0
 23 33  1  0  0  0
 23 52  1  0  0  0
 25 26  1  0  0  0
 25 53  1  0  0  0
 25 54  1  0  0  0
 26 27  1  0  0  0
 26 28  1  0  0  0
 26 55  1  0  0  0
 27 56  1  0  0  0
 28 29  1  0  0  0
 28 57  1  0  0  0
 29 30  1  0  0  0
 29 58  1  0  0  0
 30 31  2  0  0  0
 30 32  1  0  0  0
 32 59  1  0  0  0
 32 60  1  0  0  0
 32 61  1  0  0  0
 33 34  1  0  0  0
 33 35  1  0  0  0
 33 62  1  0  0  0
 34 63  1  0  0  0
 35 36  1  0  0  0
 35 37  1  0  0  0
 35 64  1  0  0  0
 36 65  1  0  0  0
 37 38  1  0  0  0
 37 66  1  0  0  0
 37 67  1  0  0  0
 38 68  1  0  0  0
M  CHG  1   3  -1
M  END
> <s_m_entry_id>
7

> <s_m_entry_name>
lig.1

> <s_pdb_PDB_format_version>
3.0

> <s_m_Source_Path>
/mnt/scratch_raid/tsenapathi/PST3

> <s_m_Source_File>
lig.sdf

> <i_m_Source_File_Index>
1

> <s_ppw_entry_id_backup>
3

> <b_ppw_prepared>
1

> <s_ppw_prepared_with_version>
2019-1

> <b_ppw_assigned_bond_orders>
1

> <b_ppw_added_hydrogens>
1

> <b_ppw_treated_metals>
1

> <b_ppw_created_disulfur>
1

> <b_ppw_deleted_far_waters>
1

> <s_ppw_het_states>
eJztlTFzwjAMhf+KL3NoI8mEAFunrr2OHANHmUpDh3Tocfz3SsYv0daBpfTMoifbfFKUvPO5omoVNvqjOjTbOmw4R6nDjEzEvDDPsc1xkWOX4zJHaiCAJDBJIAAlUAlYApcAJpAZZB6bBZlBZpAZZAaZQWaQGWQBWUCWcQ4gC8gCsoAsIEsim7J5KoLTA9RBIZRlnKS1jxnPs9TYZqlxMUkbA+XBd1lqXE6ScNrWGqdRJi0SulJBqJqOCHYsGduM12OM10VoL5XrfIJeTDAaYP+gKYk+QQf2BqcdSzqXCAZo5xkdmOCFT8b/qGC0Y0LQjgnBDFKC3qyGRJ+gNxPS+gRFTUgqqlnz0M5tdueKorrK0mZ5UR9ho3oddsMhfB763XH4vp4I7/vd8fHjdFyH59nTqX8L+9NXP+jmOrys1INV+py8P6++xHdZ/HmDP+FEmaxa/Fn8eZs/y/15R/fnaErnVe9J79Vf/Bl9Mpq1+POv+bPcn3d0fxZ//nt/bi8/YpQSBQ==

> <chiral flag>
1

> <version>
0

> <chiral flag>
1

$$$$
